%nprocshared=4
%chk=C=C(C)C.chk
# opt freq=hinderedrotor B3LYP/6-31g(d,p) symm=veryloose press=0.987

C=C(C)C_1

0  1
C           1.06722        -0.00053        -0.06407
C           2.41003        -0.00053        -0.06407
C           3.19657        -1.06770        -0.76987
C           3.19657         1.06663         0.64173
H           0.50032        -0.77254        -0.57465
H           0.50032         0.77147         0.44652
H           2.54245        -1.80096        -1.25483
H           3.83175        -1.60925        -0.06161
H           3.83176        -0.62789        -1.54542
H           2.54245         1.79989         1.12670
H           3.83175         1.60818        -0.06653
H           3.83176         0.62682         1.41728


--Link1--
%chk=C=C(C)C.chk
# freq=(readfc,hinderedrotor) temp=200 press=0.987 geom=allcheck guess=read

--Link1--
%chk=C=C(C)C.chk
# freq=(readfc,hinderedrotor) temp=250 press=0.987 geom=allcheck guess=read

--Link1--
%chk=C=C(C)C.chk
# freq=(readfc,hinderedrotor) temp=300 press=0.987 geom=allcheck guess=read

--Link1--
%chk=C=C(C)C.chk
# freq=(readfc,hinderedrotor) temp=350 press=0.987 geom=allcheck guess=read

--Link1--
%chk=C=C(C)C.chk
# freq=(readfc,hinderedrotor) temp=400 press=0.987 geom=allcheck guess=read

--Link1--
%chk=C=C(C)C.chk
# freq=(readfc,hinderedrotor) temp=450 press=0.987 geom=allcheck guess=read

--Link1--
%chk=C=C(C)C.chk
# freq=(readfc,hinderedrotor) temp=500 press=0.987 geom=allcheck guess=read

--Link1--
%chk=C=C(C)C.chk
# freq=(readfc,hinderedrotor) temp=550 press=0.987 geom=allcheck guess=read

--Link1--
%chk=C=C(C)C.chk
# freq=(readfc,hinderedrotor) temp=600 press=0.987 geom=allcheck guess=read

--Link1--
%chk=C=C(C)C.chk
# freq=(readfc,hinderedrotor) temp=650 press=0.987 geom=allcheck guess=read

--Link1--
%chk=C=C(C)C.chk
# freq=(readfc,hinderedrotor) temp=700 press=0.987 geom=allcheck guess=read

--Link1--
%chk=C=C(C)C.chk
# freq=(readfc,hinderedrotor) temp=750 press=0.987 geom=allcheck guess=read

--Link1--
%chk=C=C(C)C.chk
# freq=(readfc,hinderedrotor) temp=800 press=0.987 geom=allcheck guess=read

--Link1--
%chk=C=C(C)C.chk
# freq=(readfc,hinderedrotor) temp=850 press=0.987 geom=allcheck guess=read

--Link1--
%chk=C=C(C)C.chk
# freq=(readfc,hinderedrotor) temp=900 press=0.987 geom=allcheck guess=read

--Link1--
%chk=C=C(C)C.chk
# freq=(readfc,hinderedrotor) temp=950 press=0.987 geom=allcheck guess=read

--Link1--
%chk=C=C(C)C.chk
# freq=(readfc,hinderedrotor) temp=1000 press=0.987 geom=allcheck guess=read

--Link1--
%chk=C=C(C)C.chk
# freq=(readfc,hinderedrotor) temp=1100 press=0.987 geom=allcheck guess=read

--Link1--
%chk=C=C(C)C.chk
# freq=(readfc,hinderedrotor) temp=1200 press=0.987 geom=allcheck guess=read

--Link1--
%chk=C=C(C)C.chk
# freq=(readfc,hinderedrotor) temp=1300 press=0.987 geom=allcheck guess=read

--Link1--
%chk=C=C(C)C.chk
# freq=(readfc,hinderedrotor) temp=1400 press=0.987 geom=allcheck guess=read

--Link1--
%chk=C=C(C)C.chk
# freq=(readfc,hinderedrotor) temp=1500 press=0.987 geom=allcheck guess=read

--Link1--
%chk=C=C(C)C.chk
# freq=(readfc,hinderedrotor) temp=1600 press=0.987 geom=allcheck guess=read

--Link1--
%chk=C=C(C)C.chk
# freq=(readfc,hinderedrotor) temp=1700 press=0.987 geom=allcheck guess=read

--Link1--
%chk=C=C(C)C.chk
# freq=(readfc,hinderedrotor) temp=1800 press=0.987 geom=allcheck guess=read

--Link1--
%chk=C=C(C)C.chk
# freq=(readfc,hinderedrotor) temp=1900 press=0.987 geom=allcheck guess=read

--Link1--
%chk=C=C(C)C.chk
# freq=(readfc,hinderedrotor) temp=2000 press=0.987 geom=allcheck guess=read

--Link1--
%chk=C=C(C)C.chk
# freq=(readfc,hinderedrotor) temp=2100 press=0.987 geom=allcheck guess=read

--Link1--
%chk=C=C(C)C.chk
# freq=(readfc,hinderedrotor) temp=2200 press=0.987 geom=allcheck guess=read

--Link1--
%chk=C=C(C)C.chk
# freq=(readfc,hinderedrotor) temp=2300 press=0.987 geom=allcheck guess=read

--Link1--
%chk=C=C(C)C.chk
# freq=(readfc,hinderedrotor) temp=2400 press=0.987 geom=allcheck guess=read

--Link1--
%chk=C=C(C)C.chk
# freq=(readfc,hinderedrotor) temp=2500 press=0.987 geom=allcheck guess=read

--Link1--
%chk=C=C(C)C.chk
# freq=(readfc,hinderedrotor) temp=2600 press=0.987 geom=allcheck guess=read

--Link1--
%chk=C=C(C)C.chk
# freq=(readfc,hinderedrotor) temp=2700 press=0.987 geom=allcheck guess=read

--Link1--
%chk=C=C(C)C.chk
# freq=(readfc,hinderedrotor) temp=2800 press=0.987 geom=allcheck guess=read

--Link1--
%chk=C=C(C)C.chk
# freq=(readfc,hinderedrotor) temp=2900 press=0.987 geom=allcheck guess=read

--Link1--
%chk=C=C(C)C.chk
# freq=(readfc,hinderedrotor) temp=3000 press=0.987 geom=allcheck guess=read

--Link1--
%chk=C=C(C)C.chk
# freq=(readfc,hinderedrotor) temp=3100 press=0.987 geom=allcheck guess=read

--Link1--
%chk=C=C(C)C.chk
# freq=(readfc,hinderedrotor) temp=3200 press=0.987 geom=allcheck guess=read

--Link1--
%chk=C=C(C)C.chk
# freq=(readfc,hinderedrotor) temp=3300 press=0.987 geom=allcheck guess=read

--Link1--
%chk=C=C(C)C.chk
# freq=(readfc,hinderedrotor) temp=3400 press=0.987 geom=allcheck guess=read

--Link1--
%chk=C=C(C)C.chk
# freq=(readfc,hinderedrotor) temp=3500 press=0.987 geom=allcheck guess=read

--Link1--
%chk=C=C(C)C.chk
# freq=(readfc,hinderedrotor) temp=3600 press=0.987 geom=allcheck guess=read

--Link1--
%chk=C=C(C)C.chk
# freq=(readfc,hinderedrotor) temp=3700 press=0.987 geom=allcheck guess=read

--Link1--
%chk=C=C(C)C.chk
# freq=(readfc,hinderedrotor) temp=3800 press=0.987 geom=allcheck guess=read

--Link1--
%chk=C=C(C)C.chk
# freq=(readfc,hinderedrotor) temp=3900 press=0.987 geom=allcheck guess=read

--Link1--
%chk=C=C(C)C.chk
# freq=(readfc,hinderedrotor) temp=4000 press=0.987 geom=allcheck guess=read

--Link1--
%chk=C=C(C)C.chk
# freq=(readfc,hinderedrotor) temp=4100 press=0.987 geom=allcheck guess=read

--Link1--
%chk=C=C(C)C.chk
# freq=(readfc,hinderedrotor) temp=4200 press=0.987 geom=allcheck guess=read

--Link1--
%chk=C=C(C)C.chk
# freq=(readfc,hinderedrotor) temp=4300 press=0.987 geom=allcheck guess=read

--Link1--
%chk=C=C(C)C.chk
# freq=(readfc,hinderedrotor) temp=4400 press=0.987 geom=allcheck guess=read

--Link1--
%chk=C=C(C)C.chk
# freq=(readfc,hinderedrotor) temp=4500 press=0.987 geom=allcheck guess=read

--Link1--
%chk=C=C(C)C.chk
# freq=(readfc,hinderedrotor) temp=4600 press=0.987 geom=allcheck guess=read

--Link1--
%chk=C=C(C)C.chk
# freq=(readfc,hinderedrotor) temp=4700 press=0.987 geom=allcheck guess=read

--Link1--
%chk=C=C(C)C.chk
# freq=(readfc,hinderedrotor) temp=4800 press=0.987 geom=allcheck guess=read

--Link1--
%chk=C=C(C)C.chk
# freq=(readfc,hinderedrotor) temp=4900 press=0.987 geom=allcheck guess=read

--Link1--
%chk=C=C(C)C.chk
# freq=(readfc,hinderedrotor) temp=5000 press=0.987 geom=allcheck guess=read
