%nprocshared=4
%chk=C=CC.chk
# opt freq=hinderedrotor B3LYP/6-31g(d,p) symm=veryloose press=0.987

C=CC_1

0  1
C           0.92834         0.07425        -0.01519
C           2.26681         0.03121        -0.01532
C           3.04765        -1.24144        -0.01904
H           0.39806         1.02083        -0.01242
H           0.33486        -0.83466        -0.01785
H           2.83189         0.96064        -0.01260
H           2.39474        -2.12024        -0.02162
H           3.68460        -1.29334         0.86895
H           3.68461        -1.28814        -0.90733


--Link1--
%chk=C=CC.chk
# freq=(readfc,hinderedrotor) temp=200 press=0.987 geom=allcheck guess=read

--Link1--
%chk=C=CC.chk
# freq=(readfc,hinderedrotor) temp=250 press=0.987 geom=allcheck guess=read

--Link1--
%chk=C=CC.chk
# freq=(readfc,hinderedrotor) temp=300 press=0.987 geom=allcheck guess=read

--Link1--
%chk=C=CC.chk
# freq=(readfc,hinderedrotor) temp=350 press=0.987 geom=allcheck guess=read

--Link1--
%chk=C=CC.chk
# freq=(readfc,hinderedrotor) temp=400 press=0.987 geom=allcheck guess=read

--Link1--
%chk=C=CC.chk
# freq=(readfc,hinderedrotor) temp=450 press=0.987 geom=allcheck guess=read

--Link1--
%chk=C=CC.chk
# freq=(readfc,hinderedrotor) temp=500 press=0.987 geom=allcheck guess=read

--Link1--
%chk=C=CC.chk
# freq=(readfc,hinderedrotor) temp=550 press=0.987 geom=allcheck guess=read

--Link1--
%chk=C=CC.chk
# freq=(readfc,hinderedrotor) temp=600 press=0.987 geom=allcheck guess=read

--Link1--
%chk=C=CC.chk
# freq=(readfc,hinderedrotor) temp=650 press=0.987 geom=allcheck guess=read

--Link1--
%chk=C=CC.chk
# freq=(readfc,hinderedrotor) temp=700 press=0.987 geom=allcheck guess=read

--Link1--
%chk=C=CC.chk
# freq=(readfc,hinderedrotor) temp=750 press=0.987 geom=allcheck guess=read

--Link1--
%chk=C=CC.chk
# freq=(readfc,hinderedrotor) temp=800 press=0.987 geom=allcheck guess=read

--Link1--
%chk=C=CC.chk
# freq=(readfc,hinderedrotor) temp=850 press=0.987 geom=allcheck guess=read

--Link1--
%chk=C=CC.chk
# freq=(readfc,hinderedrotor) temp=900 press=0.987 geom=allcheck guess=read

--Link1--
%chk=C=CC.chk
# freq=(readfc,hinderedrotor) temp=950 press=0.987 geom=allcheck guess=read

--Link1--
%chk=C=CC.chk
# freq=(readfc,hinderedrotor) temp=1000 press=0.987 geom=allcheck guess=read

--Link1--
%chk=C=CC.chk
# freq=(readfc,hinderedrotor) temp=1100 press=0.987 geom=allcheck guess=read

--Link1--
%chk=C=CC.chk
# freq=(readfc,hinderedrotor) temp=1200 press=0.987 geom=allcheck guess=read

--Link1--
%chk=C=CC.chk
# freq=(readfc,hinderedrotor) temp=1300 press=0.987 geom=allcheck guess=read

--Link1--
%chk=C=CC.chk
# freq=(readfc,hinderedrotor) temp=1400 press=0.987 geom=allcheck guess=read

--Link1--
%chk=C=CC.chk
# freq=(readfc,hinderedrotor) temp=1500 press=0.987 geom=allcheck guess=read

--Link1--
%chk=C=CC.chk
# freq=(readfc,hinderedrotor) temp=1600 press=0.987 geom=allcheck guess=read

--Link1--
%chk=C=CC.chk
# freq=(readfc,hinderedrotor) temp=1700 press=0.987 geom=allcheck guess=read

--Link1--
%chk=C=CC.chk
# freq=(readfc,hinderedrotor) temp=1800 press=0.987 geom=allcheck guess=read

--Link1--
%chk=C=CC.chk
# freq=(readfc,hinderedrotor) temp=1900 press=0.987 geom=allcheck guess=read

--Link1--
%chk=C=CC.chk
# freq=(readfc,hinderedrotor) temp=2000 press=0.987 geom=allcheck guess=read

--Link1--
%chk=C=CC.chk
# freq=(readfc,hinderedrotor) temp=2100 press=0.987 geom=allcheck guess=read

--Link1--
%chk=C=CC.chk
# freq=(readfc,hinderedrotor) temp=2200 press=0.987 geom=allcheck guess=read

--Link1--
%chk=C=CC.chk
# freq=(readfc,hinderedrotor) temp=2300 press=0.987 geom=allcheck guess=read

--Link1--
%chk=C=CC.chk
# freq=(readfc,hinderedrotor) temp=2400 press=0.987 geom=allcheck guess=read

--Link1--
%chk=C=CC.chk
# freq=(readfc,hinderedrotor) temp=2500 press=0.987 geom=allcheck guess=read

--Link1--
%chk=C=CC.chk
# freq=(readfc,hinderedrotor) temp=2600 press=0.987 geom=allcheck guess=read

--Link1--
%chk=C=CC.chk
# freq=(readfc,hinderedrotor) temp=2700 press=0.987 geom=allcheck guess=read

--Link1--
%chk=C=CC.chk
# freq=(readfc,hinderedrotor) temp=2800 press=0.987 geom=allcheck guess=read

--Link1--
%chk=C=CC.chk
# freq=(readfc,hinderedrotor) temp=2900 press=0.987 geom=allcheck guess=read

--Link1--
%chk=C=CC.chk
# freq=(readfc,hinderedrotor) temp=3000 press=0.987 geom=allcheck guess=read

--Link1--
%chk=C=CC.chk
# freq=(readfc,hinderedrotor) temp=3100 press=0.987 geom=allcheck guess=read

--Link1--
%chk=C=CC.chk
# freq=(readfc,hinderedrotor) temp=3200 press=0.987 geom=allcheck guess=read

--Link1--
%chk=C=CC.chk
# freq=(readfc,hinderedrotor) temp=3300 press=0.987 geom=allcheck guess=read

--Link1--
%chk=C=CC.chk
# freq=(readfc,hinderedrotor) temp=3400 press=0.987 geom=allcheck guess=read

--Link1--
%chk=C=CC.chk
# freq=(readfc,hinderedrotor) temp=3500 press=0.987 geom=allcheck guess=read

--Link1--
%chk=C=CC.chk
# freq=(readfc,hinderedrotor) temp=3600 press=0.987 geom=allcheck guess=read

--Link1--
%chk=C=CC.chk
# freq=(readfc,hinderedrotor) temp=3700 press=0.987 geom=allcheck guess=read

--Link1--
%chk=C=CC.chk
# freq=(readfc,hinderedrotor) temp=3800 press=0.987 geom=allcheck guess=read

--Link1--
%chk=C=CC.chk
# freq=(readfc,hinderedrotor) temp=3900 press=0.987 geom=allcheck guess=read

--Link1--
%chk=C=CC.chk
# freq=(readfc,hinderedrotor) temp=4000 press=0.987 geom=allcheck guess=read

--Link1--
%chk=C=CC.chk
# freq=(readfc,hinderedrotor) temp=4100 press=0.987 geom=allcheck guess=read

--Link1--
%chk=C=CC.chk
# freq=(readfc,hinderedrotor) temp=4200 press=0.987 geom=allcheck guess=read

--Link1--
%chk=C=CC.chk
# freq=(readfc,hinderedrotor) temp=4300 press=0.987 geom=allcheck guess=read

--Link1--
%chk=C=CC.chk
# freq=(readfc,hinderedrotor) temp=4400 press=0.987 geom=allcheck guess=read

--Link1--
%chk=C=CC.chk
# freq=(readfc,hinderedrotor) temp=4500 press=0.987 geom=allcheck guess=read

--Link1--
%chk=C=CC.chk
# freq=(readfc,hinderedrotor) temp=4600 press=0.987 geom=allcheck guess=read

--Link1--
%chk=C=CC.chk
# freq=(readfc,hinderedrotor) temp=4700 press=0.987 geom=allcheck guess=read

--Link1--
%chk=C=CC.chk
# freq=(readfc,hinderedrotor) temp=4800 press=0.987 geom=allcheck guess=read

--Link1--
%chk=C=CC.chk
# freq=(readfc,hinderedrotor) temp=4900 press=0.987 geom=allcheck guess=read

--Link1--
%chk=C=CC.chk
# freq=(readfc,hinderedrotor) temp=5000 press=0.987 geom=allcheck guess=read
