%nprocshared=8
%chk=CCCCCCCCCCCC.chk
# opt freq=hinderedrotor B3LYP/6-31g(d,p) scf=fermi symm=veryloose press=0.987

CCCCCCCCCCCC_1

0 1
 C                  7.05794154   -0.30724717    0.00000000
 C                  5.76860794    0.51714672    0.00000000
 C                  4.49833656   -0.34272536    0.00000000
 C                  3.20155133    0.47325917    0.00000000
 C                  1.93250386   -0.38712520    0.00000000
 C                  0.63391796    0.43003774    0.00000000
 C                 -0.63391796   -0.43003774    0.00000000
 C                 -1.93250386    0.38712520    0.00000000
 C                 -3.20155133   -0.47325917    0.00000000
 C                 -4.49833656    0.34272536    0.00000000
 C                 -5.76860794   -0.51714672    0.00000000
 C                 -7.05794154    0.30724717    0.00000000
 H                  7.94613995    0.33548131    0.00000000
 H                  7.11617758   -0.95297119    0.88358834
 H                  7.11617758   -0.95297119   -0.88358834
 H                  5.75537854    1.17884919   -0.87715447
 H                  5.75537854    1.17884919    0.87715447
 H                  4.51132607   -1.00573266    0.87772012
 H                  4.51132607   -1.00573266   -0.87772012
 H                  3.18967035    1.13715915   -0.87790778
 H                  3.18967035    1.13715915    0.87790778
 H                  1.94262981   -1.05038693    0.87755843
 H                  1.94262981   -1.05038693   -0.87755843
 H                  0.62396422    1.09393803   -0.87669017
 H                  0.62396422    1.09393803    0.87669017
 H                 -0.62396422   -1.09393803    0.87669017
 H                 -0.62396422   -1.09393803   -0.87669017
 H                 -1.94262981    1.05038693   -0.87755843
 H                 -1.94262981    1.05038693    0.87755843
 H                 -3.18967035   -1.13715915    0.87790778
 H                 -3.18967035   -1.13715915   -0.87790778
 H                 -4.51132607    1.00573266   -0.87772012
 H                 -4.51132607    1.00573266    0.87772012
 H                 -5.75537854   -1.17884919    0.87715447
 H                 -5.75537854   -1.17884919   -0.87715447
 H                 -7.94613995   -0.33548131    0.00000000
 H                 -7.11617758    0.95297119   -0.88358834
 H                 -7.11617758    0.95297119    0.88358834


--Link1--
%chk=CCCCCCCCCCCC.chk
# freq=(readfc,hinderedrotor) temp=200 press=0.987 geom=allcheck guess=read

--Link1--
%chk=CCCCCCCCCCCC.chk
# freq=(readfc,hinderedrotor) temp=250 press=0.987 geom=allcheck guess=read

--Link1--
%chk=CCCCCCCCCCCC.chk
# freq=(readfc,hinderedrotor) temp=300 press=0.987 geom=allcheck guess=read

--Link1--
%chk=CCCCCCCCCCCC.chk
# freq=(readfc,hinderedrotor) temp=350 press=0.987 geom=allcheck guess=read

--Link1--
%chk=CCCCCCCCCCCC.chk
# freq=(readfc,hinderedrotor) temp=400 press=0.987 geom=allcheck guess=read

--Link1--
%chk=CCCCCCCCCCCC.chk
# freq=(readfc,hinderedrotor) temp=450 press=0.987 geom=allcheck guess=read

--Link1--
%chk=CCCCCCCCCCCC.chk
# freq=(readfc,hinderedrotor) temp=500 press=0.987 geom=allcheck guess=read

--Link1--
%chk=CCCCCCCCCCCC.chk
# freq=(readfc,hinderedrotor) temp=550 press=0.987 geom=allcheck guess=read

--Link1--
%chk=CCCCCCCCCCCC.chk
# freq=(readfc,hinderedrotor) temp=600 press=0.987 geom=allcheck guess=read

--Link1--
%chk=CCCCCCCCCCCC.chk
# freq=(readfc,hinderedrotor) temp=650 press=0.987 geom=allcheck guess=read

--Link1--
%chk=CCCCCCCCCCCC.chk
# freq=(readfc,hinderedrotor) temp=700 press=0.987 geom=allcheck guess=read

--Link1--
%chk=CCCCCCCCCCCC.chk
# freq=(readfc,hinderedrotor) temp=750 press=0.987 geom=allcheck guess=read

--Link1--
%chk=CCCCCCCCCCCC.chk
# freq=(readfc,hinderedrotor) temp=800 press=0.987 geom=allcheck guess=read

--Link1--
%chk=CCCCCCCCCCCC.chk
# freq=(readfc,hinderedrotor) temp=850 press=0.987 geom=allcheck guess=read

--Link1--
%chk=CCCCCCCCCCCC.chk
# freq=(readfc,hinderedrotor) temp=900 press=0.987 geom=allcheck guess=read

--Link1--
%chk=CCCCCCCCCCCC.chk
# freq=(readfc,hinderedrotor) temp=950 press=0.987 geom=allcheck guess=read

--Link1--
%chk=CCCCCCCCCCCC.chk
# freq=(readfc,hinderedrotor) temp=1000 press=0.987 geom=allcheck guess=read

--Link1--
%chk=CCCCCCCCCCCC.chk
# freq=(readfc,hinderedrotor) temp=1050 press=0.987 geom=allcheck guess=read

--Link1--
%chk=CCCCCCCCCCCC.chk
# freq=(readfc,hinderedrotor) temp=1100 press=0.987 geom=allcheck guess=read

--Link1--
%chk=CCCCCCCCCCCC.chk
# freq=(readfc,hinderedrotor) temp=1150 press=0.987 geom=allcheck guess=read

--Link1--
%chk=CCCCCCCCCCCC.chk
# freq=(readfc,hinderedrotor) temp=1200 press=0.987 geom=allcheck guess=read

--Link1--
%chk=CCCCCCCCCCCC.chk
# freq=(readfc,hinderedrotor) temp=1250 press=0.987 geom=allcheck guess=read

--Link1--
%chk=CCCCCCCCCCCC.chk
# freq=(readfc,hinderedrotor) temp=1300 press=0.987 geom=allcheck guess=read

--Link1--
%chk=CCCCCCCCCCCC.chk
# freq=(readfc,hinderedrotor) temp=1350 press=0.987 geom=allcheck guess=read

--Link1--
%chk=CCCCCCCCCCCC.chk
# freq=(readfc,hinderedrotor) temp=1400 press=0.987 geom=allcheck guess=read

--Link1--
%chk=CCCCCCCCCCCC.chk
# freq=(readfc,hinderedrotor) temp=1450 press=0.987 geom=allcheck guess=read

--Link1--
%chk=CCCCCCCCCCCC.chk
# freq=(readfc,hinderedrotor) temp=1500 press=0.987 geom=allcheck guess=read

--Link1--
%chk=CCCCCCCCCCCC.chk
# freq=(readfc,hinderedrotor) temp=1550 press=0.987 geom=allcheck guess=read

--Link1--
%chk=CCCCCCCCCCCC.chk
# freq=(readfc,hinderedrotor) temp=1600 press=0.987 geom=allcheck guess=read

--Link1--
%chk=CCCCCCCCCCCC.chk
# freq=(readfc,hinderedrotor) temp=1650 press=0.987 geom=allcheck guess=read

--Link1--
%chk=CCCCCCCCCCCC.chk
# freq=(readfc,hinderedrotor) temp=1700 press=0.987 geom=allcheck guess=read

--Link1--
%chk=CCCCCCCCCCCC.chk
# freq=(readfc,hinderedrotor) temp=1750 press=0.987 geom=allcheck guess=read

--Link1--
%chk=CCCCCCCCCCCC.chk
# freq=(readfc,hinderedrotor) temp=1800 press=0.987 geom=allcheck guess=read

--Link1--
%chk=CCCCCCCCCCCC.chk
# freq=(readfc,hinderedrotor) temp=1850 press=0.987 geom=allcheck guess=read

--Link1--
%chk=CCCCCCCCCCCC.chk
# freq=(readfc,hinderedrotor) temp=1900 press=0.987 geom=allcheck guess=read

--Link1--
%chk=CCCCCCCCCCCC.chk
# freq=(readfc,hinderedrotor) temp=1950 press=0.987 geom=allcheck guess=read

--Link1--
%chk=CCCCCCCCCCCC.chk
# freq=(readfc,hinderedrotor) temp=2000 press=0.987 geom=allcheck guess=read

--Link1--
%chk=CCCCCCCCCCCC.chk
# freq=(readfc,hinderedrotor) temp=2050 press=0.987 geom=allcheck guess=read

--Link1--
%chk=CCCCCCCCCCCC.chk
# freq=(readfc,hinderedrotor) temp=2100 press=0.987 geom=allcheck guess=read

--Link1--
%chk=CCCCCCCCCCCC.chk
# freq=(readfc,hinderedrotor) temp=2150 press=0.987 geom=allcheck guess=read

--Link1--
%chk=CCCCCCCCCCCC.chk
# freq=(readfc,hinderedrotor) temp=2200 press=0.987 geom=allcheck guess=read

--Link1--
%chk=CCCCCCCCCCCC.chk
# freq=(readfc,hinderedrotor) temp=2250 press=0.987 geom=allcheck guess=read

--Link1--
%chk=CCCCCCCCCCCC.chk
# freq=(readfc,hinderedrotor) temp=2300 press=0.987 geom=allcheck guess=read

--Link1--
%chk=CCCCCCCCCCCC.chk
# freq=(readfc,hinderedrotor) temp=2350 press=0.987 geom=allcheck guess=read

--Link1--
%chk=CCCCCCCCCCCC.chk
# freq=(readfc,hinderedrotor) temp=2400 press=0.987 geom=allcheck guess=read

--Link1--
%chk=CCCCCCCCCCCC.chk
# freq=(readfc,hinderedrotor) temp=2450 press=0.987 geom=allcheck guess=read

--Link1--
%chk=CCCCCCCCCCCC.chk
# freq=(readfc,hinderedrotor) temp=2500 press=0.987 geom=allcheck guess=read

--Link1--
%chk=CCCCCCCCCCCC.chk
# freq=(readfc,hinderedrotor) temp=2550 press=0.987 geom=allcheck guess=read

--Link1--
%chk=CCCCCCCCCCCC.chk
# freq=(readfc,hinderedrotor) temp=2600 press=0.987 geom=allcheck guess=read

--Link1--
%chk=CCCCCCCCCCCC.chk
# freq=(readfc,hinderedrotor) temp=2650 press=0.987 geom=allcheck guess=read

--Link1--
%chk=CCCCCCCCCCCC.chk
# freq=(readfc,hinderedrotor) temp=2700 press=0.987 geom=allcheck guess=read

--Link1--
%chk=CCCCCCCCCCCC.chk
# freq=(readfc,hinderedrotor) temp=2750 press=0.987 geom=allcheck guess=read

--Link1--
%chk=CCCCCCCCCCCC.chk
# freq=(readfc,hinderedrotor) temp=2800 press=0.987 geom=allcheck guess=read

--Link1--
%chk=CCCCCCCCCCCC.chk
# freq=(readfc,hinderedrotor) temp=2850 press=0.987 geom=allcheck guess=read

--Link1--
%chk=CCCCCCCCCCCC.chk
# freq=(readfc,hinderedrotor) temp=2900 press=0.987 geom=allcheck guess=read

--Link1--
%chk=CCCCCCCCCCCC.chk
# freq=(readfc,hinderedrotor) temp=2950 press=0.987 geom=allcheck guess=read

--Link1--
%chk=CCCCCCCCCCCC.chk
# freq=(readfc,hinderedrotor) temp=3000 press=0.987 geom=allcheck guess=read
