%nprocshared=8
%chk=cis-CC=CC.chk
# opt freq=hinderedrotor B3LYP/6-31g(d,p) symm=veryloose press=0.987 int=superfine

cis-CC=CC_1

0  1
C        -1.482530       -0.712769        0.012000
C         0.000000       -0.955376        0.000000
C         0.956522       -0.020978       -0.009000
C         0.740094        1.474941       -0.003000
H        -1.730478        0.351681        0.033000
H        -1.938487       -1.174210        0.885066
H        -1.974487       -1.162210       -0.873066
H         0.306462       -2.001124       -0.012000
H         1.991898       -0.357480       -0.036000
H         0.141405        1.665626        0.796448
H         1.693765        2.009178        0.171000
H         0.225405        1.953626       -0.970448


--Link1--
%chk=cis-CC=CC.chk
# freq=(readfc,hinderedrotor) temp=200 press=0.987 geom=allcheck guess=read

--Link1--
%chk=cis-CC=CC.chk
# freq=(readfc,hinderedrotor) temp=250 press=0.987 geom=allcheck guess=read

--Link1--
%chk=cis-CC=CC.chk
# freq=(readfc,hinderedrotor) temp=300 press=0.987 geom=allcheck guess=read

--Link1--
%chk=cis-CC=CC.chk
# freq=(readfc,hinderedrotor) temp=350 press=0.987 geom=allcheck guess=read

--Link1--
%chk=cis-CC=CC.chk
# freq=(readfc,hinderedrotor) temp=400 press=0.987 geom=allcheck guess=read

--Link1--
%chk=cis-CC=CC.chk
# freq=(readfc,hinderedrotor) temp=450 press=0.987 geom=allcheck guess=read

--Link1--
%chk=cis-CC=CC.chk
# freq=(readfc,hinderedrotor) temp=500 press=0.987 geom=allcheck guess=read

--Link1--
%chk=cis-CC=CC.chk
# freq=(readfc,hinderedrotor) temp=550 press=0.987 geom=allcheck guess=read

--Link1--
%chk=cis-CC=CC.chk
# freq=(readfc,hinderedrotor) temp=600 press=0.987 geom=allcheck guess=read

--Link1--
%chk=cis-CC=CC.chk
# freq=(readfc,hinderedrotor) temp=650 press=0.987 geom=allcheck guess=read

--Link1--
%chk=cis-CC=CC.chk
# freq=(readfc,hinderedrotor) temp=700 press=0.987 geom=allcheck guess=read

--Link1--
%chk=cis-CC=CC.chk
# freq=(readfc,hinderedrotor) temp=750 press=0.987 geom=allcheck guess=read

--Link1--
%chk=cis-CC=CC.chk
# freq=(readfc,hinderedrotor) temp=800 press=0.987 geom=allcheck guess=read

--Link1--
%chk=cis-CC=CC.chk
# freq=(readfc,hinderedrotor) temp=850 press=0.987 geom=allcheck guess=read

--Link1--
%chk=cis-CC=CC.chk
# freq=(readfc,hinderedrotor) temp=900 press=0.987 geom=allcheck guess=read

--Link1--
%chk=cis-CC=CC.chk
# freq=(readfc,hinderedrotor) temp=950 press=0.987 geom=allcheck guess=read

--Link1--
%chk=cis-CC=CC.chk
# freq=(readfc,hinderedrotor) temp=1000 press=0.987 geom=allcheck guess=read

--Link1--
%chk=cis-CC=CC.chk
# freq=(readfc,hinderedrotor) temp=1050 press=0.987 geom=allcheck guess=read

--Link1--
%chk=cis-CC=CC.chk
# freq=(readfc,hinderedrotor) temp=1100 press=0.987 geom=allcheck guess=read

--Link1--
%chk=cis-CC=CC.chk
# freq=(readfc,hinderedrotor) temp=1150 press=0.987 geom=allcheck guess=read

--Link1--
%chk=cis-CC=CC.chk
# freq=(readfc,hinderedrotor) temp=1200 press=0.987 geom=allcheck guess=read

--Link1--
%chk=cis-CC=CC.chk
# freq=(readfc,hinderedrotor) temp=1250 press=0.987 geom=allcheck guess=read

--Link1--
%chk=cis-CC=CC.chk
# freq=(readfc,hinderedrotor) temp=1300 press=0.987 geom=allcheck guess=read

--Link1--
%chk=cis-CC=CC.chk
# freq=(readfc,hinderedrotor) temp=1350 press=0.987 geom=allcheck guess=read

--Link1--
%chk=cis-CC=CC.chk
# freq=(readfc,hinderedrotor) temp=1400 press=0.987 geom=allcheck guess=read

--Link1--
%chk=cis-CC=CC.chk
# freq=(readfc,hinderedrotor) temp=1450 press=0.987 geom=allcheck guess=read

--Link1--
%chk=cis-CC=CC.chk
# freq=(readfc,hinderedrotor) temp=1500 press=0.987 geom=allcheck guess=read

--Link1--
%chk=cis-CC=CC.chk
# freq=(readfc,hinderedrotor) temp=1550 press=0.987 geom=allcheck guess=read

--Link1--
%chk=cis-CC=CC.chk
# freq=(readfc,hinderedrotor) temp=1600 press=0.987 geom=allcheck guess=read

--Link1--
%chk=cis-CC=CC.chk
# freq=(readfc,hinderedrotor) temp=1650 press=0.987 geom=allcheck guess=read

--Link1--
%chk=cis-CC=CC.chk
# freq=(readfc,hinderedrotor) temp=1700 press=0.987 geom=allcheck guess=read

--Link1--
%chk=cis-CC=CC.chk
# freq=(readfc,hinderedrotor) temp=1750 press=0.987 geom=allcheck guess=read

--Link1--
%chk=cis-CC=CC.chk
# freq=(readfc,hinderedrotor) temp=1800 press=0.987 geom=allcheck guess=read

--Link1--
%chk=cis-CC=CC.chk
# freq=(readfc,hinderedrotor) temp=1850 press=0.987 geom=allcheck guess=read

--Link1--
%chk=cis-CC=CC.chk
# freq=(readfc,hinderedrotor) temp=1900 press=0.987 geom=allcheck guess=read

--Link1--
%chk=cis-CC=CC.chk
# freq=(readfc,hinderedrotor) temp=1950 press=0.987 geom=allcheck guess=read

--Link1--
%chk=cis-CC=CC.chk
# freq=(readfc,hinderedrotor) temp=2000 press=0.987 geom=allcheck guess=read

--Link1--
%chk=cis-CC=CC.chk
# freq=(readfc,hinderedrotor) temp=2050 press=0.987 geom=allcheck guess=read

--Link1--
%chk=cis-CC=CC.chk
# freq=(readfc,hinderedrotor) temp=2100 press=0.987 geom=allcheck guess=read

--Link1--
%chk=cis-CC=CC.chk
# freq=(readfc,hinderedrotor) temp=2150 press=0.987 geom=allcheck guess=read

--Link1--
%chk=cis-CC=CC.chk
# freq=(readfc,hinderedrotor) temp=2200 press=0.987 geom=allcheck guess=read

--Link1--
%chk=cis-CC=CC.chk
# freq=(readfc,hinderedrotor) temp=2250 press=0.987 geom=allcheck guess=read

--Link1--
%chk=cis-CC=CC.chk
# freq=(readfc,hinderedrotor) temp=2300 press=0.987 geom=allcheck guess=read

--Link1--
%chk=cis-CC=CC.chk
# freq=(readfc,hinderedrotor) temp=2350 press=0.987 geom=allcheck guess=read

--Link1--
%chk=cis-CC=CC.chk
# freq=(readfc,hinderedrotor) temp=2400 press=0.987 geom=allcheck guess=read

--Link1--
%chk=cis-CC=CC.chk
# freq=(readfc,hinderedrotor) temp=2450 press=0.987 geom=allcheck guess=read

--Link1--
%chk=cis-CC=CC.chk
# freq=(readfc,hinderedrotor) temp=2500 press=0.987 geom=allcheck guess=read

--Link1--
%chk=cis-CC=CC.chk
# freq=(readfc,hinderedrotor) temp=2550 press=0.987 geom=allcheck guess=read

--Link1--
%chk=cis-CC=CC.chk
# freq=(readfc,hinderedrotor) temp=2600 press=0.987 geom=allcheck guess=read

--Link1--
%chk=cis-CC=CC.chk
# freq=(readfc,hinderedrotor) temp=2650 press=0.987 geom=allcheck guess=read

--Link1--
%chk=cis-CC=CC.chk
# freq=(readfc,hinderedrotor) temp=2700 press=0.987 geom=allcheck guess=read

--Link1--
%chk=cis-CC=CC.chk
# freq=(readfc,hinderedrotor) temp=2750 press=0.987 geom=allcheck guess=read

--Link1--
%chk=cis-CC=CC.chk
# freq=(readfc,hinderedrotor) temp=2800 press=0.987 geom=allcheck guess=read

--Link1--
%chk=cis-CC=CC.chk
# freq=(readfc,hinderedrotor) temp=2850 press=0.987 geom=allcheck guess=read

--Link1--
%chk=cis-CC=CC.chk
# freq=(readfc,hinderedrotor) temp=2900 press=0.987 geom=allcheck guess=read

--Link1--
%chk=cis-CC=CC.chk
# freq=(readfc,hinderedrotor) temp=2950 press=0.987 geom=allcheck guess=read

--Link1--
%chk=cis-CC=CC.chk
# freq=(readfc,hinderedrotor) temp=3000 press=0.987 geom=allcheck guess=read
