  11
         -1.51553837
 C         -1.2653574884        0.2682644801        0.0000018610
 C         -0.0000019294       -0.5767102205        0.0000020125
 C          1.2653538232        0.2682595996       -0.0000006735
 H         -1.3080424819        0.9157769619        0.8783981037
 H         -2.1701910183       -0.3446600531       -0.0001801222
 H         -1.3079216021        0.9159990015       -0.8782371067
 H          0.0000077553       -1.2476521621       -0.8715165503
 H         -0.0000054061       -1.2476996640        0.8714804673
 H          1.3081995726        0.9156739079       -0.8784620777
 H          2.1701922994       -0.3446584109        0.0003247095
 H          1.3078275510        0.9161129043        0.8781544417
