  17
         -2.40316995
 C         -2.5400357775        0.3290895149       -0.0000000001
 C         -1.2762462800       -0.5167853885       -0.0000000000
 C         -0.0000004540        0.3263491348        0.0000000002
 C          1.2762463795       -0.5167870318       -0.0000000000
 C          2.5400361776        0.3290902904       -0.0000000001
 H         -3.4451201842       -0.2833784456        0.0000000001
 H         -2.5822124013        0.9766076330       -0.8783909141
 H         -2.5822124013        0.9766076329        0.8783909140
 H         -1.2688693422       -1.1861028819       -0.8710554339
 H         -1.2688693423       -1.1861028820        0.8710554339
 H          0.0000004932        0.9945878455        0.8703113917
 H          0.0000004932        0.9945878457       -0.8703113912
 H          1.2688682084       -1.1860958345       -0.8710614352
 H          1.2688682084       -1.1860958346        0.8710614350
 H          2.5822145212        0.9766062463       -0.8783921925
 H          3.4451166812       -0.2833834378        0.0000000001
 H          2.5822145212        0.9766062463        0.8783921925
