  48
         -7.69748891
 C         -2.7219136385       -2.2598600632        0.0030356028
 C         -2.9485273295       -0.7461120909        0.0149481062
 H         -3.2010290338       -2.7070880847        0.8843889295
 H         -3.2438026288       -2.6955179787       -0.8591991678
 C         -2.3903991233       -0.0274262274       -1.2136845157
 H         -4.0219502558       -0.5294001051        0.0974598224
 H         -2.5059841375       -0.3217723540        0.9233015349
 C         -2.7064112905        1.4718528505       -1.2319989727
 H         -1.3066341045       -0.1780139814       -1.2699044984
 H         -2.7873846290       -0.5054985874       -2.1190629696
 H         -2.3324696009        1.9195256618       -2.1621563920
 H         -3.7960431710        1.6037643309       -1.2658938765
 C         -2.1319924899        2.2445546262       -0.0402490727
 C         -0.6042224270        2.2609550088       -0.0067900605
 H         -2.5192428193        1.8219782691        0.8931972046
 H         -2.4990505977        3.2796207066       -0.0500943650
 C         -0.0247895686        2.9649915450        1.2246594711
 H         -0.2212354439        1.2350231169       -0.0397431683
 H         -0.2342307325        2.7343486352       -0.9259117161
 C         -0.2219055557        2.1734758495        2.5087825893
 H          1.0477526659        3.1530918315        1.0738796900
 H         -0.4775544818        3.9609611179        1.3192431033
 H         -1.2797014484        2.0259234258        2.7331683882
 H          0.2324790899        1.1832349469        2.4339235359
 H          0.2259560547        2.6735679577        3.3710430978
 C         -1.2471485688       -2.6732614725       -0.0228291045
 C         -0.4281389176       -2.0919404274        1.1314611746
 H         -0.7972375167       -2.3779693829       -0.9778414688
 H         -1.1690101991       -3.7684059750       -0.0016052440
 C          0.9738495441       -2.6938086605        1.2511333390
 H         -0.3468157408       -1.0050658679        1.0135470037
 H         -0.9780337287       -2.2382949774        2.0706031735
 C          1.8479541859       -2.4827650213        0.0089642355
 H          1.4832887574       -2.2686116789        2.1256488864
 H          0.8870921006       -3.7676135706        1.4631022904
 H          2.8275314205       -2.9568427542        0.1504171208
 H          1.4029039944       -3.0018899700       -0.8474422923
 C          2.0645422941       -1.0396071809       -0.3473882628
 C          2.7439697241       -0.1944126511        0.5172101201
 C          1.6120506187       -0.5294092899       -1.5565491005
 C          2.9716471339        1.1248040168        0.1805839874
 H          3.1026663362       -0.5812386573        1.4559197761
 C          1.8406524895        0.7889393883       -1.8954833508
 H          1.0856592542       -1.1761680362       -2.2378190412
 C          2.5232430671        1.6166612802       -1.0279491406
 H          3.5023995515        1.7702412138        0.8616928032
 H          1.4847380884        1.1720552544       -2.8382630138
 H          2.7012403693        2.6467979195       -1.2916334466
