  38
         -5.51014410
 C          7.0067346690       -0.3146628715       -0.0000000000
 C          5.7301887192        0.5118382038        0.0000000000
 C          4.4672355830       -0.3507708565       -0.0000000000
 C          3.1794828213        0.4729753250        0.0000000000
 C          1.9184141320       -0.3909159033       -0.0000000000
 C          0.6304002343        0.4321273893        0.0000000000
 C         -0.6304005712       -0.4321270610       -0.0000000000
 C         -1.9184149498        0.3909151085        0.0000000000
 C         -3.1794826674       -0.4729775574       -0.0000000000
 C         -4.4672348899        0.3507686042        0.0000000000
 C         -5.7301899027       -0.5118391582       -0.0000000000
 C         -7.0067331105        0.3146677364        0.0000000000
 H          7.9023834049        0.3115292308        0.0000000000
 H          7.0587126867       -0.9614686231        0.8784028394
 H          7.0587126867       -0.9614686231       -0.8784028394
 H          5.7124361842        1.1809306147       -0.8710884080
 H          5.7124361842        1.1809306147        0.8710884080
 H          4.4772971498       -1.0187474497        0.8704366593
 H          4.4772971498       -1.0187474497       -0.8704366593
 H          3.1688072279        1.1407544259       -0.8705501931
 H          3.1688072279        1.1407544260        0.8705501931
 H          1.9290904253       -1.0587006058        0.8705333398
 H          1.9290904253       -1.0587006058       -0.8705333398
 H          0.6195945937        1.0999032471       -0.8705417155
 H          0.6195945937        1.0999032471        0.8705417155
 H         -0.6195957068       -1.0999033854        0.8705413960
 H         -0.6195957068       -1.0999033854       -0.8705413960
 H         -1.9290919323        1.0586993403       -0.8705336962
 H         -1.9290919323        1.0586993403        0.8705336962
 H         -3.1688084561       -1.1407568592        0.8705501033
 H         -3.1688084561       -1.1407568593       -0.8705501033
 H         -4.4772961649        1.0187455113       -0.8704364814
 H         -4.4772961649        1.0187455113        0.8704364814
 H         -5.7124383012       -1.1809245396        0.8710933923
 H         -5.7124383012       -1.1809245396       -0.8710933923
 H         -7.9023813849       -0.3115249385       -0.0000000000
 H         -7.0587091170        0.9614723792       -0.8784036780
 H         -7.0587091170        0.9614723792        0.8784036780
