  14
         -1.95933513
 C         -1.9450496244        0.1311184103       -0.0000000000
 C         -0.5674927237       -0.5132670851        0.0000000000
 C          0.5674924523        0.5132688402       -0.0000000000
 C          1.9450498572       -0.1311197749        0.0000000000
 H         -2.7466943643       -0.6116302605       -0.0000000000
 H         -2.0851398013        0.7646831447       -0.8784079174
 H         -2.0851398013        0.7646831448        0.8784079174
 H         -0.4587573700       -1.1739089441       -0.8709543241
 H         -0.4587573700       -1.1739089439        0.8709543241
 H          0.4587577663        1.1739025016        0.8709600520
 H          0.4587577662        1.1739025015       -0.8709600522
 H          2.0851418346       -0.7646808689        0.8784099738
 H          2.7466899660        0.6116339406        0.0000000000
 H          2.0851418346       -0.7646808690       -0.8784099736
