  12
         -1.85067457
 C         -0.0047217091        1.3961362147       -0.0004709404
 C          0.0000574224        0.0731032916        0.0026043898
 C          1.2879534465       -0.6745904655       -0.0006479995
 C         -1.2835404824       -0.6817274867       -0.0004819138
 H         -0.9232945706        1.9487476654        0.0006383033
 H          0.9096048732        1.9557431796       -0.0038164893
 H          1.1454262574       -1.7156126195        0.2926553966
 H          1.7399518954       -0.6649948400       -0.9936751994
 H          2.0004384480       -0.2309192867        0.6965747915
 H         -1.1230941046       -1.7415189064       -0.2059585934
 H         -1.7844661167       -0.6008106009        0.9659243824
 H         -1.9615717071       -0.2963045852       -0.7643015877
