  9
         -1.40224324
 C          1.2249012582        0.2345903086       -0.0000174795
 C          0.1054485924       -0.4615518418        0.0000570069
 C         -1.2294380549        0.1774405303        0.0000037189
 H          2.1890349115       -0.2369150986       -0.0000760537
 H          1.2073599031        1.3068442771       -0.0000203167
 H          0.1567323553       -1.5401539413       -0.0001473934
 H         -1.3583464087        0.8107159710        0.8802659453
 H         -2.0375762389       -0.5580182834        0.0017083566
 H         -1.3597559441        0.8076617766       -0.8822458982
