  11
         -1.51553837
 C          1.2653558767       -0.2682658076        0.0000069129
 C         -0.0000016889        0.5767168918       -0.0000041079
 C         -1.2653581611       -0.2682629393       -0.0000092069
 H          2.1701978111        0.3446475394       -0.0003319398
 H          1.3078534829       -0.9160852562       -0.8781710617
 H          1.3081743067       -0.9156428573        0.8784954464
 H         -0.0000087792        1.2476592269       -0.8715181787
 H          0.0000117904        1.2476529594        0.8715132342
 H         -1.3080653647       -0.9157865564       -0.8783951508
 H         -2.1701806625        0.3446770377        0.0002840115
 H         -1.3079352357       -0.9160384622        0.8781999286
