  48
         -7.69691995
 C          1.8856669351        2.8485336528       -1.2767470639
 C          0.6104670516        2.1410836724       -0.8460245992
 C         -0.0104369449        2.7555994542        0.4108346901
 C         -1.2683812856        2.0266287058        0.8937986088
 C         -2.4567903124        2.1595547174       -0.0610707211
 C         -3.7097685736        1.4087009244        0.4044277455
 C         -3.5345852626       -0.1116379894        0.4805877982
 C         -3.2469102772       -0.7613989271       -0.8741005895
 C         -2.9969332215       -2.2712070255       -0.7960639860
 C         -1.8228789589       -2.6628421553        0.1080327737
 C         -0.5128631878       -1.9651007918       -0.2556008405
 C          0.6460406015       -2.3335153319        0.6720453978
 C          1.8538362486       -1.4694941651        0.4544878417
 C          2.6801265145       -1.6728003563       -0.6405574057
 C          3.7669921633       -0.8515578816       -0.8646372518
 C          4.0397078792        0.1858120218        0.0034320885
 C          3.2217844859        0.4032704318        1.0931777547
 C          2.1334384022       -0.4163961694        1.3142280333
 H          2.6373280729        2.8245511227       -0.4853478014
 H          1.6965499014        3.8988473819       -1.5077961305
 H          2.3298784848        2.3907069201       -2.1639263741
 H          0.8135007050        1.0771507987       -0.6668764538
 H         -0.1188072637        2.1554777364       -1.6660488850
 H         -0.2462690118        3.8104854526        0.2240433971
 H          0.7443896396        2.7681135219        1.2084062024
 H         -1.5642669171        2.3984606905        1.8837455757
 H         -1.0290365400        0.9690949174        1.0490167613
 H         -2.1709724639        1.8108805270       -1.0590689937
 H         -2.6866808466        3.2251093927       -0.1948121541
 H         -4.5486669493        1.6357951989       -0.2666216334
 H         -4.0124294566        1.7969517581        1.3858780749
 H         -4.4300179242       -0.5749005322        0.9159313810
 H         -2.7287674522       -0.3482953296        1.1837234717
 H         -2.3805524147       -0.2776637700       -1.3384103052
 H         -4.0804004522       -0.5511351919       -1.5574895870
 H         -2.8166863292       -2.6638532373       -1.8057074844
 H         -3.9115236603       -2.7714658633       -0.4514598677
 H         -1.6726770141       -3.7502874615        0.0837308384
 H         -2.0702504547       -2.4395391051        1.1530129052
 H         -0.6522793109       -0.8793737894       -0.2245907402
 H         -0.2451161995       -2.1849166247       -1.2963661130
 H          0.9163961516       -3.3877595568        0.5404562079
 H          0.3242645111       -2.2459906206        1.7165048253
 H          2.4612767786       -2.4791077877       -1.3201008578
 H          4.4019487781       -1.0198783874       -1.7194674916
 H          4.8881799516        0.8275716466       -0.1715384982
 H          3.4294896164        1.2164672533        1.7698257609
 H          1.4863505412       -0.2390761944        2.1566629816
