  14
         -1.95933512
 C         -1.9450718344        0.1311211117        0.0000000003
 C         -0.5674795349       -0.5132720804       -0.0000000003
 C          0.5674798592        0.5132752109       -0.0000000003
 C          1.9450710245       -0.1311240351        0.0000000003
 H         -2.7466882917       -0.6116545811       -0.0000000002
 H         -2.0851334658        0.7646567457       -0.8784297447
 H         -2.0851334655        0.7646567453        0.8784297459
 H         -0.4587728478       -1.1738374439       -0.8710097539
 H         -0.4587728474       -1.1738374441        0.8710097529
 H          0.4587747425        1.1738314572        0.8710162159
 H          0.4587747430        1.1738314566       -0.8710162173
 H          2.0851369910       -0.7646529681        0.8784335875
 H          2.7466832375        0.6116565337       -0.0000000003
 H          2.0851369912       -0.7646529694       -0.8784335860
