  10
         -1.72586104
 C          1.8223227144       -0.1199706788       -0.0006238312
 C          0.6034707890        0.4011914669        0.0006591640
 C         -0.6034217579       -0.4010750643        0.0007787438
 C         -1.8223585177        0.1198808584       -0.0005967939
 H          2.7023298882        0.4939019863       -0.0007711957
 H          1.9693122924       -1.1819149103       -0.0016451840
 H          0.4838858730        1.4723365666        0.0014514764
 H         -0.4837802023       -1.4722208136        0.0012904907
 H         -2.7022258581       -0.4941944335       -0.0012979688
 H         -1.9696796268        1.1817748291       -0.0016169449
